Circuit: *** SPICE deck for cell 2bit_FA_right_sim{lay} from library 2bit_FA

Direct Newton iteration failed to find .op point.  (Use ".option noopiter" to skip.)
Starting Gmin stepping
Gmin = 10
Gmin = 1.07374
Gmin = 0.115292
Gmin = 0.0123794
Gmin = 0.00132923
Gmin = 0.000142725
Gmin = 1.5325e-005
Gmin = 1.6455e-006
Gmin = 1.76685e-007
Gmin = 1.89714e-008
Gmin = 2.03704e-009
Gmin = 2.18725e-010
Gmin = 2.34854e-011
Gmin = 2.52173e-012
Gmin = 2.70769e-013
Gmin = 0
Gmin stepping succeeded in finding the operating point.


Date: Mon Jan 13 21:42:51 2025
Total elapsed time: 0.462 seconds.

tnom = 27
temp = 27
method = modified trap
totiter = 3238
traniter = 2854
tranpoints = 1091
accept = 1082
rejected = 9
matrix size = 266
fillins = 12
solver = Normal
Thread vector: 66.1/21.3[5] 18.2/5.7[5] 4.2/4.7[1] 3.2/2.5[4]  2592/500
Matrix Compiler1: 38.35 KB object code size  33.0/8.8/[4.3]
Matrix Compiler2: 33.90 KB object code size  7.8/4.4/[1.3]

