Circuit: *** SPICE deck for cell 2bit_FA{sch} from library 2bit_FA

Direct Newton iteration failed to find .op point.  (Use ".option noopiter" to skip.)
Starting Gmin stepping
Gmin = 10
Gmin = 1.07374
Gmin = 0.115292
Gmin = 0.0123794
Gmin = 0.00132923
Gmin = 0.000142725
Gmin = 1.5325e-005
Gmin = 1.6455e-006
Gmin = 1.76685e-007
Gmin = 1.89714e-008
Gmin = 2.03704e-009
Gmin = 2.18725e-010
Gmin = 2.34854e-011
Gmin = 2.52173e-012
Gmin = 2.70769e-013
Gmin = 0
Gmin stepping succeeded in finding the operating point.


Date: Mon Jan 13 18:44:40 2025
Total elapsed time: 0.620 seconds.

tnom = 27
temp = 27
method = modified trap
totiter = 3116
traniter = 2723
tranpoints = 1090
accept = 1084
rejected = 6
matrix size = 266
fillins = 4
solver = Normal
Thread vector: 194.4/134.2[5] 40.2/9.5[5] 10.8/5.7[5] 3.6/4.0[1]  2592/500
Matrix Compiler1: 37.72 KB object code size  32.2/17.8/[5.1]
Matrix Compiler2: 33.79 KB object code size  17.7/27.9/[4.5]

