Circuit: *** SPICE deck for cell 4bit_FA{lay} from library FA_for_CLA

WARNING: Less than two connections to node CLK.  This node is used by VCLK.
Direct Newton iteration failed to find .op point.  (Use ".option noopiter" to skip.)
Starting Gmin stepping
Gmin = 10
Gmin = 1.07374
Gmin = 0.115292
Gmin = 0.0123794
Gmin = 0.00132923
Gmin = 0.000142725
Gmin = 1.5325e-005
Gmin = 1.6455e-006
Gmin = 1.76685e-007
Gmin = 1.89714e-008
Gmin = 2.03704e-009
Gmin = 2.18725e-010
Gmin = 2.34854e-011
Gmin = 2.52173e-012
Gmin = 2.70769e-013
Gmin = 0
Gmin stepping succeeded in finding the operating point.


Date: Fri Jan 10 15:49:47 2025
Total elapsed time: 1.160 seconds.

tnom = 27
temp = 27
method = modified trap
totiter = 3201
traniter = 2809
tranpoints = 1159
accept = 1138
rejected = 21
matrix size = 532
fillins = 18
solver = Normal
Thread vector: 185.0/85.1[8] 33.1/16.9[8] 13.3/7.6[8] 8.3/42.5[1]  2592/500
Matrix Compiler1: 76.27 KB object code size  68.2/16.7/[6.3]
Matrix Compiler2: 67.66 KB object code size  91.4/20.6/[8.6]

