Circuit: *** SPICE deck for cell adder{sch} from library NEW-ADDER

Direct Newton iteration for .op point succeeded.


Measurement "tf" FAIL'ed

Measurement "tr" FAIL'ed


Date: Tue Jan 07 20:58:08 2025
Total elapsed time: 0.140 seconds.

tnom = 27
temp = 27
method = modified trap
totiter = 2550
traniter = 2530
tranpoints = 1074
accept = 1074
rejected = 0
matrix size = 78
fillins = 0
solver = Normal
Matrix Compiler1: 9.43 KB object code size  5.5/1.7/[0.8]
Matrix Compiler2: 9.67 KB object code size  1.5/1.5/[0.6]

