Circuit: *** SPICE deck for cell carrycircuit4bit{lay} from library project-(1)

WARNING: Node C3 is floating.
WARNING: Node S0 is floating.
WARNING: Node S1 is floating.
WARNING: Node S2 is floating.
WARNING: Node S3 is floating.

WARNING: Less than two connections to node C3.  This node is used by CLOAD.
WARNING: Less than two connections to node S0.  This node is used by CLOAD0.
WARNING: Less than two connections to node S1.  This node is used by CLOAD1.
WARNING: Less than two connections to node S2.  This node is used by CLOAD2.
WARNING: Less than two connections to node S3.  This node is used by CLOAD3.
Direct Newton iteration failed to find .op point.  (Use ".option noopiter" to skip.)
Starting Gmin stepping
Gmin = 10
Gmin = 1.07374
Gmin = 0.115292
Gmin = 0.0123794
Gmin = 0.00132923
Gmin = 0.000142725
Gmin = 1.5325e-005
Gmin = 1.6455e-006
Gmin = 1.76685e-007
Gmin = 1.89714e-008
Gmin = 2.03704e-009
Gmin = 2.18725e-010
Gmin = 2.34854e-011
Gmin = 2.52173e-012
Gmin = 2.70769e-013
Gmin = 0
Gmin stepping succeeded in finding the operating point.


Date: Fri Jan 10 21:20:53 2025
Total elapsed time: 1.012 seconds.

tnom = 27
temp = 27
method = modified trap
totiter = 4124
traniter = 3665
tranpoints = 1171
accept = 1152
rejected = 19
matrix size = 593
fillins = 38
solver = Normal
Thread vector: 145.6/91.2[8] 37.7/14.4[8] 14.2/8.5[8] 4.0/7.7[1]  2592/500
Matrix Compiler1: 91.92 KB object code size  50.6/14.4/[10.7]
Matrix Compiler2: 76.56 KB object code size  20.6/17.7/[3.7]

