Circuit: *** SPICE deck for cell carrycircuit4bit{sch} from library project-(1)

Direct Newton iteration failed to find .op point.  (Use ".option noopiter" to skip.)
Starting Gmin stepping
Gmin = 10
Gmin = 1.07374
Gmin = 0.115292
Gmin = 0.0123794
Gmin = 0.00132923
Gmin = 0.000142725
Gmin = 1.5325e-005
Gmin = 1.6455e-006
Gmin = 1.76685e-007
Gmin = 1.89714e-008
Gmin = 2.03704e-009
Gmin = 2.18725e-010
Gmin = 2.34854e-011
Gmin = 2.52173e-012
Gmin = 2.70769e-013
Gmin = 0
Gmin stepping succeeded in finding the operating point.


Date: Sat Jan 04 20:53:25 2025
Total elapsed time: 1.289 seconds.

tnom = 27
temp = 27
method = modified trap
totiter = 5723
traniter = 5227
tranpoints = 1599
accept = 1410
rejected = 189
matrix size = 696
fillins = 54
solver = Normal
Thread vector: 144.9/75.4[8] 32.8/14.0[8] 15.5/8.1[8] 2.6/9.3[1]  2592/500
Matrix Compiler1: 107.10 KB object code size  66.8/18.2/[9.9]
Matrix Compiler2: 89.52 KB object code size  30.9/17.9/[3.0]

