Circuit: *** SPICE deck for cell carrycircuit4bit{sch} from library project-(1)

Direct Newton iteration failed to find .op point.  (Use ".option noopiter" to skip.)
Starting Gmin stepping
Gmin = 10
Gmin = 1.07374
Gmin = 0.115292
Gmin = 0.0123794
Gmin = 0.00132923
Gmin = 0.000142725
Gmin = 1.5325e-005
Gmin = 1.6455e-006
Gmin = 1.76685e-007
Gmin = 1.89714e-008
Gmin = 2.03704e-009
Gmin = 2.18725e-010
Gmin = 2.34854e-011
Gmin = 2.52173e-012
Gmin = 2.70769e-013
Gmin = 0
Gmin stepping succeeded in finding the operating point.


Date: Sat Jan 04 22:02:55 2025
Total elapsed time: 1.222 seconds.

tnom = 27
temp = 27
method = modified trap
totiter = 4778
traniter = 4317
tranpoints = 1304
accept = 1229
rejected = 75
matrix size = 678
fillins = 38
solver = Normal
Thread vector: 146.9/79.8[8] 35.4/17.9[8] 15.3/8.1[8] 3.8/23.4[1]  2592/500
Matrix Compiler1: 103.49 KB object code size  62.7/21.8/[9.5]
Matrix Compiler2: 87.17 KB object code size  25.2/14.6/[4.1]

