Circuit: *** SPICE deck for cell carrycircuit4bit{sch} from library project-(1)

Direct Newton iteration failed to find .op point.  (Use ".option noopiter" to skip.)
Starting Gmin stepping
Gmin = 10
Gmin = 1.07374
Gmin = 0.115292
Gmin = 0.0123794
Gmin = 0.00132923
Gmin = 0.000142725
Gmin = 1.5325e-005
Gmin = 1.6455e-006
Gmin = 1.76685e-007
Gmin = 1.89714e-008
Gmin = 2.03704e-009
Gmin = 2.18725e-010
Gmin = 2.34854e-011
Gmin = 2.52173e-012
Gmin = 2.70769e-013
Gmin = 0
Gmin stepping succeeded in finding the operating point.


Date: Sun Jan 05 17:57:56 2025
Total elapsed time: 1.188 seconds.

tnom = 27
temp = 27
method = modified trap
totiter = 4251
traniter = 3791
tranpoints = 1207
accept = 1169
rejected = 38
matrix size = 624
fillins = 32
solver = Normal
Thread vector: 224.6/78.6[8] 35.0/11.4[8] 14.2/6.7[8] 4.4/8.4[1]  2592/500
Matrix Compiler1: 96.21 KB object code size  42.6/12.2/[12.5]
Matrix Compiler2: 80.56 KB object code size  18.9/18.4/[8.3]

