Circuit: *** SPICE deck for cell carryblock{lay} from library project-(1)

WARNING: Node NET@0 is floating.

WARNING: Less than two connections to node CLK.  This node is used by VCLK.
Direct Newton iteration failed to find .op point.  (Use ".option noopiter" to skip.)
Starting Gmin stepping
Gmin = 10
Gmin = 1.07374
Gmin = 0.115292
Gmin = 0.0123794
Gmin = 0.00132923
Gmin = 0.000142725
Gmin = 1.5325e-005
Gmin = 1.6455e-006
Gmin = 1.76685e-007
Gmin = 1.89714e-008
Gmin = 2.03704e-009
Gmin = 2.18725e-010
Gmin = 2.34854e-011
Gmin = 2.52173e-012
Gmin = 2.70769e-013
Gmin = 0
Gmin stepping succeeded in finding the operating point.


Date: Fri Jan 10 22:41:46 2025
Total elapsed time: 0.977 seconds.

tnom = 27
temp = 27
method = modified trap
totiter = 3257
traniter = 2787
tranpoints = 1154
accept = 1136
rejected = 18
matrix size = 617
fillins = 30
solver = Normal
Thread vector: 179.7/76.2[8] 34.1/12.9[8] 12.4/8.0[8] 7.6/10.3[1]  2592/500
Matrix Compiler1: 97.15 KB object code size  61.6/15.4/[9.2]
Matrix Compiler2: 79.89 KB object code size  19.8/13.5/[3.6]

