Circuit: *** SPICE deck for cell carrycircuit4bit{sch} from library project-(1)

Vb3: Removing PWL point (9.5e-008,0.95)
Direct Newton iteration failed to find .op point.  (Use ".option noopiter" to skip.)
Starting Gmin stepping
Gmin = 10
Gmin = 1.07374
Gmin = 0.115292
Gmin = 0.0123794
Gmin = 0.00132923
Gmin = 0.000142725
Gmin = 1.5325e-005
Gmin = 1.6455e-006
Gmin = 1.76685e-007
Gmin = 1.89714e-008
Gmin = 2.03704e-009
Gmin = 2.18725e-010
Gmin = 2.34854e-011
Gmin = 2.52173e-012
Gmin = 2.70769e-013
Gmin = 0
Gmin stepping succeeded in finding the operating point.


Date: Sun Jan 05 14:35:15 2025
Total elapsed time: 1.646 seconds.

tnom = 27
temp = 27
method = modified trap
totiter = 4661
traniter = 4198
tranpoints = 1313
accept = 1227
rejected = 86
matrix size = 620
fillins = 28
solver = Normal
Thread vector: 275.1/99.3[8] 53.7/16.3[8] 19.4/10.6[8] 5.5/10.5[1]  2592/500
Matrix Compiler1: 95.51 KB object code size  78.6/21.3/[9.3]
Matrix Compiler2: 79.91 KB object code size  30.0/26.0/[7.5]

