Circuit: *** SPICE deck for cell carrycircuit4bit{sch} from library project-(1)

Direct Newton iteration failed to find .op point.  (Use ".option noopiter" to skip.)
Starting Gmin stepping
Gmin = 10
Gmin = 1.07374
Gmin = 0.115292
Gmin = 0.0123794
Gmin = 0.00132923
Gmin = 0.000142725
Gmin = 1.5325e-005
Gmin = 1.6455e-006
Gmin = 1.76685e-007
Gmin = 1.89714e-008
Gmin = 2.03704e-009
Gmin = 2.18725e-010
Gmin = 2.34854e-011
Gmin = 2.52173e-012
Gmin = 2.70769e-013
Gmin = 0
Gmin stepping succeeded in finding the operating point.


Date: Sat Jan 04 23:50:53 2025
Total elapsed time: 1.629 seconds.

tnom = 27
temp = 27
method = modified trap
totiter = 4578
traniter = 4119
tranpoints = 1290
accept = 1213
rejected = 77
matrix size = 624
fillins = 32
solver = Normal
Thread vector: 265.2/152.2[8] 44.0/16.2[8] 17.2/10.3[8] 6.3/9.6[1]  2592/500
Matrix Compiler1: 96.06 KB object code size  50.9/19.3/[12.2]
Matrix Compiler2: 80.63 KB object code size  51.7/26.7/[7.3]

