Circuit: *** SPICE deck for cell carryblock{lay} from library project-(1)

WARNING: Node _4BIT_FA_@0_C-1 is floating.
WARNING: Node NET@0 is floating.

WARNING: Less than two connections to node CLK.  This node is used by VCLK.
Direct Newton iteration failed to find .op point.  (Use ".option noopiter" to skip.)
Starting Gmin stepping
Gmin = 10
Gmin = 1.07374
Gmin = 0.115292
Gmin = 0.0123794
Gmin = 0.00132923
Gmin = 0.000142725
Gmin = 1.5325e-005
Gmin = 1.6455e-006
Gmin = 1.76685e-007
Gmin = 1.89714e-008
Gmin = 2.03704e-009
Gmin = 2.18725e-010
Gmin = 2.34854e-011
Gmin = 2.52173e-012
Gmin = 2.70769e-013
Gmin = 0
Gmin stepping succeeded in finding the operating point.


Date: Fri Jan 10 22:37:51 2025
Total elapsed time: 1.077 seconds.

tnom = 27
temp = 27
method = modified trap
totiter = 3199
traniter = 2721
tranpoints = 1142
accept = 1132
rejected = 10
matrix size = 618
fillins = 42
solver = Normal
Thread vector: 207.5/71.1[8] 32.6/15.3[8] 11.9/7.2[8] 9.6/7.1[5]  2592/500
Matrix Compiler1: 98.76 KB object code size  66.2/17.9/[10.9]
Matrix Compiler2: 80.13 KB object code size  26.7/17.3/[5.1]

