Circuit: *** SPICE deck for cell carryblock{lay} from library project-(1)

WARNING: Node NET@0 is floating.

WARNING: Less than two connections to node CLK.  This node is used by VCLK.
Direct Newton iteration failed to find .op point.  (Use ".option noopiter" to skip.)
Starting Gmin stepping
Gmin = 10
Gmin = 1.07374
Gmin = 0.115292
Gmin = 0.0123794
Gmin = 0.00132923
Gmin = 0.000142725
Gmin = 1.5325e-005
Gmin = 1.6455e-006
Gmin = 1.76685e-007
Gmin = 1.89714e-008
Gmin = 2.03704e-009
Gmin = 2.18725e-010
Gmin = 2.34854e-011
Gmin = 2.52173e-012
Gmin = 2.70769e-013
Gmin = 0
Gmin stepping succeeded in finding the operating point.


Date: Sat Jan 11 19:28:00 2025
Total elapsed time: 1.335 seconds.

tnom = 27
temp = 27
method = modified trap
totiter = 3308
traniter = 2866
tranpoints = 1157
accept = 1137
rejected = 20
matrix size = 616
fillins = 22
solver = Normal
Thread vector: 492.0/130.9[8] 37.2/16.0[8] 90.3/13.4[8] 20.4/12.4[7]  2592/500
Matrix Compiler1: 93.83 KB object code size  89.3/23.7/[15.5]
Matrix Compiler2: 78.75 KB object code size  37.7/25.1/[15.4]

