Circuit: *** SPICE deck for cell carrycircuit4bit{lay} from library project-(1)

WARNING: Node S0 is floating.
WARNING: Node S1 is floating.
WARNING: Node S2 is floating.
WARNING: Node S3 is floating.

WARNING: Less than two connections to node S0.  This node is used by CLOAD0.
WARNING: Less than two connections to node S1.  This node is used by CLOAD1.
WARNING: Less than two connections to node S2.  This node is used by CLOAD2.
WARNING: Less than two connections to node S3.  This node is used by CLOAD3.
Direct Newton iteration failed to find .op point.  (Use ".option noopiter" to skip.)
Starting Gmin stepping
Gmin = 10
Gmin = 1.07374
Gmin = 0.115292
Gmin = 0.0123794
Gmin = 0.00132923
Gmin = 0.000142725
Gmin = 1.5325e-005
Gmin = 1.6455e-006
Gmin = 1.76685e-007
Gmin = 1.89714e-008
Gmin = 2.03704e-009
Gmin = 2.18725e-010
Gmin = 2.34854e-011
Gmin = 2.52173e-012
Gmin = 2.70769e-013
Gmin = 0
Gmin stepping succeeded in finding the operating point.


Date: Fri Jan 10 22:04:05 2025
Total elapsed time: 1.049 seconds.

tnom = 27
temp = 27
method = modified trap
totiter = 4140
traniter = 3681
tranpoints = 1172
accept = 1152
rejected = 20
matrix size = 592
fillins = 38
solver = Normal
Thread vector: 150.2/72.2[8] 32.3/13.2[8] 11.7/7.2[8] 2.9/7.8[1]  2592/500
Matrix Compiler1: 91.91 KB object code size  76.2/19.2/[7.1]
Matrix Compiler2: 76.52 KB object code size  29.6/12.6/[5.3]

