Circuit: *** SPICE deck for cell carrycircuit4bit{lay} from library project-(1)

WARNING: Node DYNAMIC_@0_CLK is floating.
WARNING: Node DYNAMIC_@0_G3 is floating.
WARNING: Node C3 is floating.
WARNING: Node S0 is floating.
WARNING: Node S1 is floating.
WARNING: Node S2 is floating.
WARNING: Node S3 is floating.

WARNING: Less than two connections to node DYNAMIC_@0_G3.  This node is used by M:DYNAMIC_@0:NMOS@9.
WARNING: Less than two connections to node C3.  This node is used by CLOAD.
WARNING: Less than two connections to node S0.  This node is used by CLOAD0.
WARNING: Less than two connections to node S1.  This node is used by CLOAD1.
WARNING: Less than two connections to node S2.  This node is used by CLOAD2.
WARNING: Less than two connections to node S3.  This node is used by CLOAD3.
WARNING: Less than two connections to node CLK.  This node is used by VCLK.
Direct Newton iteration failed to find .op point.  (Use ".option noopiter" to skip.)
Starting Gmin stepping
Gmin = 10
Gmin = 1.07374
Gmin = 0.115292
Gmin = 0.0123794
Gmin = 0.00132923
Gmin = 0.000142725
Gmin = 1.5325e-005
Gmin = 1.6455e-006
Gmin = 1.76685e-007
Gmin = 1.89714e-008
Gmin = 2.03704e-009
Gmin = 2.18725e-010
Gmin = 2.34854e-011
Gmin = 2.52173e-012
Gmin = 2.70769e-013
Gmin = 0
Gmin stepping succeeded in finding the operating point.


Date: Fri Jan 10 21:06:15 2025
Total elapsed time: 1.025 seconds.

tnom = 27
temp = 27
method = modified trap
totiter = 3286
traniter = 2816
tranpoints = 1149
accept = 1138
rejected = 11
matrix size = 594
fillins = 26
solver = Normal
Thread vector: 154.2/76.0[8] 31.8/13.4[8] 12.5/7.5[6] 7.7/13.2[1]  2592/500
Matrix Compiler1: 92.29 KB object code size  61.8/18.6/[9.9]
Matrix Compiler2: 76.32 KB object code size  27.9/13.3/[4.7]

