Circuit: *** SPICE deck for cell carrycircuit4bit{sch} from library project-(1)

Direct Newton iteration failed to find .op point.  (Use ".option noopiter" to skip.)
Starting Gmin stepping
Gmin = 10
Gmin = 1.07374
Gmin = 0.115292
Gmin = 0.0123794
Gmin = 0.00132923
Gmin = 0.000142725
Gmin = 1.5325e-005
Gmin = 1.6455e-006
Gmin = 1.76685e-007
Gmin = 1.89714e-008
Gmin = 2.03704e-009
Gmin = 2.18725e-010
Gmin = 2.34854e-011
Gmin = 2.52173e-012
Gmin = 2.70769e-013
Gmin = 0
Gmin stepping succeeded in finding the operating point.


Date: Fri Jan 03 20:39:41 2025
Total elapsed time: 2.777 seconds.

tnom = 27
temp = 27
method = modified trap
totiter = 7838
traniter = 7328
tranpoints = 2138
accept = 1791
rejected = 347
matrix size = 687
fillins = 52
solver = Normal
Thread vector: 523.2/121.5[8] 91.2/17.9[8] 22.4/7.4[8] 14.6/5.4[3]  2592/500
Matrix Compiler1: 105.83 KB object code size  70.0/38.9/[16.1]
Matrix Compiler2: 88.41 KB object code size  41.5/59.3/[38.4]

