Circuit: *** SPICE deck for cell carrycircuit4bit{lay} from library project-(1)

WARNING: Node S0 is floating.
WARNING: Node S1 is floating.
WARNING: Node S2 is floating.
WARNING: Node S3 is floating.

WARNING: Less than two connections to node S0.  This node is used by CLOAD0.
WARNING: Less than two connections to node S1.  This node is used by CLOAD1.
WARNING: Less than two connections to node S2.  This node is used by CLOAD2.
WARNING: Less than two connections to node S3.  This node is used by CLOAD3.
Direct Newton iteration failed to find .op point.  (Use ".option noopiter" to skip.)
Starting Gmin stepping
Gmin = 10
Gmin = 1.07374
Gmin = 0.115292
Gmin = 0.0123794
Gmin = 0.00132923
Gmin = 0.000142725
Gmin = 1.5325e-005
Gmin = 1.6455e-006
Gmin = 1.76685e-007
Gmin = 1.89714e-008
Gmin = 2.03704e-009
Gmin = 2.18725e-010
Gmin = 2.34854e-011
Gmin = 2.52173e-012
Gmin = 2.70769e-013
Gmin = 0
Gmin stepping succeeded in finding the operating point.


Date: Sat Jan 11 14:33:40 2025
Total elapsed time: 1.597 seconds.

tnom = 27
temp = 27
method = modified trap
totiter = 4140
traniter = 3681
tranpoints = 1172
accept = 1152
rejected = 20
matrix size = 592
fillins = 38
solver = Normal
Thread vector: 331.0/142.3[8] 65.7/15.7[8] 23.9/9.1[8] 3.4/10.5[1]  2592/500
Matrix Compiler1: 91.91 KB object code size  73.1/36.4/[13.0]
Matrix Compiler2: 76.52 KB object code size  57.0/15.6/[6.7]

