Circuit: *** SPICE deck for cell carrycircuit4bit{sch} from library project-(1)

Direct Newton iteration failed to find .op point.  (Use ".option noopiter" to skip.)
Starting Gmin stepping
Gmin = 10
Gmin = 1.07374
Gmin = 0.115292
Gmin = 0.0123794
Gmin = 0.00132923
Gmin = 0.000142725
Gmin = 1.5325e-005
Gmin = 1.6455e-006
Gmin = 1.76685e-007
Gmin = 1.89714e-008
Gmin = 2.03704e-009
Gmin = 2.18725e-010
Gmin = 2.34854e-011
Gmin = 2.52173e-012
Gmin = 2.70769e-013
Gmin = 0
Gmin stepping succeeded in finding the operating point.


Date: Sat Jan 04 21:05:57 2025
Total elapsed time: 1.379 seconds.

tnom = 27
temp = 27
method = modified trap
totiter = 5723
traniter = 5227
tranpoints = 1599
accept = 1410
rejected = 189
matrix size = 696
fillins = 54
solver = Normal
Thread vector: 146.8/82.0[8] 35.3/14.3[8] 13.6/9.4[7] 3.0/7.6[1]  2592/500
Matrix Compiler1: 107.10 KB object code size  64.2/18.3/[8.4]
Matrix Compiler2: 89.52 KB object code size  32.5/25.0/[4.1]

