Circuit: *** SPICE deck for cell carrycircuit4bit{sch} from library project-(1)

Vclk: Removing PWL point (5e-008,0.95)
Vclk: Removing PWL point (9e-008,0)
Vclk: Removing PWL point (1.75e-007,0.95)
Direct Newton iteration failed to find .op point.  (Use ".option noopiter" to skip.)
Starting Gmin stepping
Gmin = 10
Gmin = 1.07374
Gmin = 0.115292
Gmin = 0.0123794
Gmin = 0.00132923
Gmin = 0.000142725
Gmin = 1.5325e-005
Gmin = 1.6455e-006
Gmin = 1.76685e-007
Gmin = 1.89714e-008
Gmin = 2.03704e-009
Gmin = 2.18725e-010
Gmin = 2.34854e-011
Gmin = 2.52173e-012
Gmin = 2.70769e-013
Gmin = 0
Gmin stepping succeeded in finding the operating point.


Date: Fri Jan 03 17:27:55 2025
Total elapsed time: 2.154 seconds.

tnom = 27
temp = 27
method = modified trap
totiter = 4669
traniter = 4173
tranpoints = 1403
accept = 1284
rejected = 119
matrix size = 687
fillins = 54
solver = Normal
Thread vector: 342.0/52.9[8] 40.8/24.6[8] 78.3/17.4[8] 13.7/10.0[5]  2592/500
Matrix Compiler1: 106.06 KB object code size  42.7/22.1/[8.4]
Matrix Compiler2: 88.45 KB object code size  158.1/174.7/[46.8]

