Circuit: *** SPICE deck for cell dynamic_part{lay} from library project-(1)

