Circuit: *** SPICE deck for cell FA{lay} from library FA_for_CLA

Direct Newton iteration for .op point succeeded.


Measurement "tf" FAIL'ed

Measurement "tr" FAIL'ed


Date: Fri Jan 03 00:24:51 2025
Total elapsed time: 0.235 seconds.

tnom = 27
temp = 27
method = modified trap
totiter = 2746
traniter = 2696
tranpoints = 1108
accept = 1090
rejected = 18
matrix size = 134
fillins = 8
solver = Normal
Thread vector: 112.8/30.1[2] 8.3/5.9[2] 2.5/1.7[2] 1.9/3.1[1]  2592/500
Matrix Compiler1: 19.18 KB object code size  11.6/4.6/[1.4]
Matrix Compiler2: 17.04 KB object code size  3.9/3.2/[0.9]

