Circuit: *** SPICE deck for cell FA_icon{sch} from library FA_for_CLA

Direct Newton iteration for .op point succeeded.


Measurement "tf" FAIL'ed

Measurement "tr" FAIL'ed


Date: Fri Jan 03 16:50:04 2025
Total elapsed time: 0.773 seconds.

tnom = 27
temp = 27
method = modified trap
totiter = 2697
traniter = 2676
tranpoints = 1103
accept = 1089
rejected = 14
matrix size = 134
fillins = 2
solver = Normal
Thread vector: 353.8/105.2[2] 17.2/26.3[1] 32.4/8.9[2] 4.0/11.6[1]  2592/500
Matrix Compiler1: 18.87 KB object code size  43.5/224.2/[5.0]
Matrix Compiler2: 16.95 KB object code size  359.0/16.0/[11.5]

