Circuit: *** SPICE deck for cell FA_icon{sch} from library FA_for_CLA

Direct Newton iteration for .op point succeeded.


Measurement "tf" FAIL'ed

Measurement "tr" FAIL'ed


Date: Thu Jan 02 23:13:20 2025
Total elapsed time: 0.336 seconds.

tnom = 27
temp = 27
method = modified trap
totiter = 2724
traniter = 2707
tranpoints = 1103
accept = 1087
rejected = 16
matrix size = 134
fillins = 2
solver = Normal
Thread vector: 58.7/35.5[2] 18.5/12.0[2] 3.2/22.5[1] 2.4/1.6[2]  2592/500
Matrix Compiler1: 18.87 KB object code size  13.4/4.2/[1.6]
Matrix Compiler2: 16.95 KB object code size  4.6/3.0/[1.0]

