Circuit: *** SPICE deck for cell FA_new{lay} from library FA_new

Direct Newton iteration for .op point succeeded.

Date: Mon Jan 13 20:56:28 2025
Total elapsed time: 0.367 seconds.

tnom = 27
temp = 27
method = modified trap
totiter = 2665
traniter = 2630
tranpoints = 1081
accept = 1077
rejected = 4
matrix size = 134
fillins = 3
solver = Normal
Thread vector: 45.2/35.7[2] 14.5/7.4[2] 3.5/2.1[2] 0.9/1.5[1]  2592/500
Matrix Compiler1: 18.92 KB object code size  21.8/6.7/[1.9]
Matrix Compiler2: 16.95 KB object code size  7.4/3.0/[1.8]

