Circuit: *** SPICE deck for cell FA_new_icon{sch} from library FA_new

Direct Newton iteration for .op point succeeded.

Date: Mon Jan 13 18:39:29 2025
Total elapsed time: 0.389 seconds.

tnom = 27
temp = 27
method = modified trap
totiter = 2687
traniter = 2656
tranpoints = 1077
accept = 1075
rejected = 2
matrix size = 134
fillins = 2
solver = Normal
Thread vector: 176.1/103.9[2] 20.3/11.4[2] 7.4/3.9[2] 9.8/4.7[2]  2592/500
Matrix Compiler1: 18.87 KB object code size  14.2/10.2/[3.1]
Matrix Compiler2: 16.95 KB object code size  10.7/7.0/[1.9]

