Circuit: *** SPICE deck for cell FA_new{lay} from library FA_new

Direct Newton iteration for .op point succeeded.

Date: Mon Jan 13 18:20:37 2025
Total elapsed time: 0.448 seconds.

tnom = 27
temp = 27
method = modified trap
totiter = 2665
traniter = 2630
tranpoints = 1081
accept = 1077
rejected = 4
matrix size = 134
fillins = 3
solver = Normal
Thread vector: 100.2/87.0[2] 16.4/8.7[2] 4.7/3.5[2] 5.5/4.3[2]  2592/500
Matrix Compiler1: 18.91 KB object code size  26.5/8.4/[2.6]
Matrix Compiler2: 16.96 KB object code size  10.0/6.0/[2.0]

