Circuit: *** SPICE deck for cell FA_new_sim{lay} from library FA_new

Direct Newton iteration for .op point succeeded.

Date: Mon Jan 13 18:30:57 2025
Total elapsed time: 0.342 seconds.

tnom = 27
temp = 27
method = modified trap
totiter = 2665
traniter = 2630
tranpoints = 1081
accept = 1077
rejected = 4
matrix size = 134
fillins = 3
solver = Normal
Thread vector: 198.3/101.5[2] 15.6/10.5[2] 4.9/4.6[1] 4.0/5.2[1]  2592/500
Matrix Compiler1: 18.91 KB object code size  31.2/5.1/[3.9]
Matrix Compiler2: 16.96 KB object code size  7.8/8.6/[2.0]

