Circuit: *** SPICE deck for cell FA_new_sim{lay} from library FA_new

Direct Newton iteration for .op point succeeded.

Date: Mon Jan 13 21:01:38 2025
Total elapsed time: 0.281 seconds.

tnom = 27
temp = 27
method = modified trap
totiter = 2665
traniter = 2630
tranpoints = 1081
accept = 1077
rejected = 4
matrix size = 134
fillins = 3
solver = Normal
Thread vector: 65.7/54.1[2] 10.0/6.7[2] 3.4/3.3[1] 3.9/3.4[2]  2592/500
Matrix Compiler1: 18.92 KB object code size  20.3/4.1/[2.4]
Matrix Compiler2: 16.95 KB object code size  3.1/5.6/[1.3]

