Circuit: *** SPICE deck for cell FA_new{lay} from library FA_new

WARNING: Node NET@196 is floating.

Direct Newton iteration for .op point succeeded.

Date: Mon Jan 13 20:42:39 2025
Total elapsed time: 0.529 seconds.

tnom = 27
temp = 27
method = modified trap
totiter = 2520
traniter = 2482
tranpoints = 1072
accept = 1071
rejected = 1
matrix size = 135
fillins = 11
solver = Normal
Thread vector: 106.6/60.5[2] 14.9/7.6[2] 4.4/5.7[1] 1.5/3.5[1]  2592/500
Matrix Compiler1: 20.40 KB object code size  9.7/5.9/[2.5]
Matrix Compiler2: 17.16 KB object code size  4.0/4.4/[1.6]

