Circuit: *** SPICE deck for cell FA_sim{lay} from library FA_for_CLA

Direct Newton iteration for .op point succeeded.


Measurement "tf" FAIL'ed

Measurement "tr" FAIL'ed


Date: Fri Jan 03 12:17:45 2025
Total elapsed time: 0.310 seconds.

tnom = 27
temp = 27
method = modified trap
totiter = 2746
traniter = 2696
tranpoints = 1108
accept = 1090
rejected = 18
matrix size = 134
fillins = 8
solver = Normal
Thread vector: 58.8/36.4[2] 7.7/5.4[2] 2.2/2.1[1] 2.3/1.8[2]  2592/500
Matrix Compiler1: 19.18 KB object code size  11.8/3.5/[1.9]
Matrix Compiler2: 17.04 KB object code size  3.3/2.6/[1.1]

