Circuit: *** SPICE deck for cell FA_sim{lay} from library FA_for_CLA

Direct Newton iteration failed to find .op point.  (Use ".option noopiter" to skip.)
Starting Gmin stepping
Gmin = 10
Gmin = 1.07374
Gmin = 0.115292
Gmin = 0.0123794
Gmin = 0.00132923
Gmin = 0.000142725
Gmin = 1.5325e-005
Gmin = 1.6455e-006
Gmin = 1.76685e-007
Gmin = 1.89714e-008
Gmin = 2.03704e-009
Gmin = 2.18725e-010
Gmin = 2.34854e-011
Gmin = 2.52173e-012
Gmin = 2.70769e-013
Gmin = 0
Gmin stepping succeeded in finding the operating point.



Measurement "tf" FAIL'ed

Measurement "tr" FAIL'ed


Date: Sun Jan 05 17:56:58 2025
Total elapsed time: 0.249 seconds.

tnom = 27
temp = 27
method = modified trap
totiter = 3028
traniter = 2652
tranpoints = 1094
accept = 1084
rejected = 10
matrix size = 134
fillins = 4
solver = Normal
Thread vector: 30.9/18.3[2] 13.6/6.3[2] 2.2/1.4[2] 0.6/1.1[1]  2592/500
Matrix Compiler1: 19.02 KB object code size  15.6/4.4/[1.6]
Matrix Compiler2: 16.97 KB object code size  2.7/1.6/[0.7]

