Circuit: *** SPICE deck for cell inv_sim{lay} from library inverter

Direct Newton iteration for .op point succeeded.


Measurement "tf" FAIL'ed

Measurement "tr" FAIL'ed


Date: Thu Jan 02 22:25:36 2025
Total elapsed time: 0.110 seconds.

tnom = 27
temp = 27
method = modified trap
totiter = 2118
traniter = 2106
tranpoints = 1054
accept = 1054
rejected = 0
matrix size = 13
fillins = 0
solver = Normal
Matrix Compiler1: 996 bytes object code size  0.6/0.2/[0.1]
Matrix Compiler2: off  [0.2]/0.3/0.3

