Circuit: *** SPICE deck for cell NAND_ICON{sch} from library NAND

Direct Newton iteration for .op point succeeded.

Date: Thu Jan 02 22:41:08 2025
Total elapsed time: 0.162 seconds.

tnom = 27
temp = 27
method = modified trap
totiter = 2415
traniter = 2406
tranpoints = 1074
accept = 1074
rejected = 0
matrix size = 24
fillins = 0
solver = Normal
Matrix Compiler1: 2.23 KB object code size  4.5/1.4/[0.5]
Matrix Compiler2: 2.68 KB object code size  1.3/1.5/[0.5]

