Circuit: *** SPICE deck for cell NAND_sim{lay} from library NAND

Ignoring BSIM parameter XL
Ignoring BSIM parameter XW
Ignoring BSIM parameter XL
Ignoring BSIM parameter XW
Direct Newton iteration for .op point succeeded.

tf=1.843e-007 FROM 1.57002e-008 TO 2e-007
tr=1.46368e-007 FROM 5.36319e-008 TO 2e-007


Date: Thu Jan 02 14:41:43 2025
Total elapsed time: 0.134 seconds.

tnom = 27
temp = 27
method = modified trap
totiter = 2418
traniter = 2410
tranpoints = 1098
accept = 1084
rejected = 14
matrix size = 8
fillins = 0
solver = Normal
Matrix Compiler1: 300 bytes object code size  0.1/0.0/[0.0]
Matrix Compiler2: 636 bytes object code size  0.1/0.1/[0.0]

