Circuit: *** SPICE deck for cell nand{sch} from library NAND

Direct Newton iteration for .op point succeeded.

Date: Thu Jan 02 22:43:35 2025
Total elapsed time: 0.111 seconds.

tnom = 27
temp = 27
method = modified trap
totiter = 2420
traniter = 2411
tranpoints = 1074
accept = 1074
rejected = 0
matrix size = 24
fillins = 0
solver = Normal
Matrix Compiler1: 2.23 KB object code size  2.3/0.7/[0.2]
Matrix Compiler2: 2.68 KB object code size  0.6/0.6/[0.4]

