Circuit: *** SPICE deck for cell NAND_sim{lay} from library NAND

Direct Newton iteration for .op point succeeded.

Date: Thu Jan 02 22:42:27 2025
Total elapsed time: 0.146 seconds.

tnom = 27
temp = 27
method = modified trap
totiter = 2386
traniter = 2357
tranpoints = 1074
accept = 1074
rejected = 0
matrix size = 24
fillins = 0
solver = Normal
Matrix Compiler1: 2.18 KB object code size  4.1/1.3/[0.5]
Matrix Compiler2: 2.69 KB object code size  1.3/1.5/[0.5]

