Circuit: *** SPICE deck for cell NAND_sim{lay} from library NAND

WARNING: Node NAND@0_B is floating.
WARNING: Node NAND@0_A is floating.

WARNING: Less than two connections to node A.  This node is used by VA.
WARNING: Less than two connections to node B.  This node is used by VB.
Direct Newton iteration for .op point succeeded.

Date: Mon Jan 13 16:52:41 2025
Total elapsed time: 0.223 seconds.

tnom = 27
temp = 27
method = modified trap
totiter = 2159
traniter = 2146
tranpoints = 1074
accept = 1074
rejected = 0
matrix size = 26
fillins = 2
solver = Normal
Matrix Compiler1: 3.22 KB object code size  4.1/1.4/[0.6]
Matrix Compiler2: 2.74 KB object code size  1.2/1.3/[0.7]

