Circuit: *** SPICE deck for cell Repeater_sim{lay} from library Repeater

Direct Newton iteration for .op point succeeded.


Measurement "tf" FAIL'ed

Measurement "tr" FAIL'ed


Date: Sat Jan 04 21:15:04 2025
Total elapsed time: 0.089 seconds.

tnom = 27
temp = 27
method = modified trap
totiter = 2139
traniter = 2127
tranpoints = 1054
accept = 1054
rejected = 0
matrix size = 22
fillins = 0
solver = Normal
Matrix Compiler1: 2.20 KB object code size  1.5/0.5/[0.2]
Matrix Compiler2: 2.38 KB object code size  0.5/0.5/[0.3]

