Circuit: *** SPICE deck for cell Repeater{lay} from library Repeater

Direct Newton iteration for .op point succeeded.


Measurement "tf" FAIL'ed

Measurement "tr" FAIL'ed


Date: Mon Jan 06 20:28:50 2025
Total elapsed time: 0.169 seconds.

tnom = 27
temp = 27
method = modified trap
totiter = 2260
traniter = 2227
tranpoints = 1054
accept = 1054
rejected = 0
matrix size = 32
fillins = 0
solver = Normal
Matrix Compiler1: 4.03 KB object code size  0.8/0.3/[0.3]
Matrix Compiler2: off  [0.3]/0.6/0.4

