Circuit: *** SPICE deck for cell Repeater_icon{sch} from library Repeater

Direct Newton iteration for .op point succeeded.


Measurement "tf" FAIL'ed

Measurement "tr" FAIL'ed


Date: Fri Jan 03 20:32:40 2025
Total elapsed time: 0.196 seconds.

tnom = 27
temp = 27
method = modified trap
totiter = 2195
traniter = 2184
tranpoints = 1067
accept = 1061
rejected = 6
matrix size = 22
fillins = 0
solver = Normal
Matrix Compiler1: 2.20 KB object code size  0.8/0.8/[0.4]
Matrix Compiler2: 2.38 KB object code size  0.5/1.0/[0.4]

