Circuit: *** SPICE deck for cell Repeater{sch} from library Repeater

Direct Newton iteration for .op point succeeded.


Measurement "tf" FAIL'ed

Measurement "tr" FAIL'ed


Date: Fri Jan 03 14:08:42 2025
Total elapsed time: 0.149 seconds.

tnom = 27
temp = 27
method = modified trap
totiter = 2140
traniter = 2128
tranpoints = 1054
accept = 1054
rejected = 0
matrix size = 22
fillins = 0
solver = Normal
Matrix Compiler1: 2.20 KB object code size  3.4/1.3/[0.5]
Matrix Compiler2: 2.38 KB object code size  11.5/1.3/[0.4]

