Circuit: *** SPICE deck for cell Repeater_sim{lay} from library Repeater

Direct Newton iteration for .op point succeeded.


Measurement "tf" FAIL'ed

Measurement "tr" FAIL'ed


Date: Mon Jan 06 21:10:17 2025
Total elapsed time: 0.150 seconds.

tnom = 27
temp = 27
method = modified trap
totiter = 2260
traniter = 2227
tranpoints = 1054
accept = 1054
rejected = 0
matrix size = 32
fillins = 0
solver = Normal
Matrix Compiler1: 4.03 KB object code size  2.5/0.7/[0.2]
Matrix Compiler2: 3.87 KB object code size  0.6/0.8/[0.5]

