Circuit: *** SPICE deck for cell XOR{lay} from library XOR

Direct Newton iteration for .op point succeeded.

Date: Thu Jan 02 23:54:51 2025
Total elapsed time: 0.254 seconds.

tnom = 27
temp = 27
method = modified trap
totiter = 2628
traniter = 2596
tranpoints = 1075
accept = 1074
rejected = 1
matrix size = 60
fillins = 1
solver = Normal
Matrix Compiler1: 7.88 KB object code size  6.8/2.5/[0.7]
Matrix Compiler2: 7.41 KB object code size  2.4/1.6/[0.6]

