Circuit: *** SPICE deck for cell XOR{lay} from library XOR

Direct Newton iteration failed to find .op point.  (Use ".option noopiter" to skip.)
Starting Gmin stepping
Gmin = 10
Gmin = 1.07374
Gmin = 0.115292
Gmin = 0.0123794
Gmin = 0.00132923
Gmin = 0.000142725
Gmin = 1.5325e-005
Gmin = 1.6455e-006
Gmin = 1.76685e-007
Gmin = 1.89714e-008
Gmin = 2.03704e-009
Gmin = 2.18725e-010
Gmin = 2.34854e-011
Gmin = 2.52173e-012
Gmin = 2.70769e-013
Gmin = 0
Gmin stepping succeeded in finding the operating point.


Date: Sun Jan 05 17:52:41 2025
Total elapsed time: 0.231 seconds.

tnom = 27
temp = 27
method = modified trap
totiter = 3004
traniter = 2628
tranpoints = 1074
accept = 1074
rejected = 0
matrix size = 60
fillins = 0
solver = Normal
Matrix Compiler1: 7.81 KB object code size  5.1/2.7/[0.4]
Matrix Compiler2: 7.42 KB object code size  1.3/1.0/[0.4]

