Circuit: *** SPICE deck for cell XOR{lay} from library XOR

