Circuit: *** SPICE deck for cell XOR{lay} from library XOR

Direct Newton iteration for .op point succeeded.

Date: Thu Jan 02 22:35:37 2025
Total elapsed time: 0.216 seconds.

tnom = 27
temp = 27
method = modified trap
totiter = 2586
traniter = 2559
tranpoints = 1074
accept = 1074
rejected = 0
matrix size = 60
fillins = 0
solver = Normal
Matrix Compiler1: 7.81 KB object code size  4.1/1.5/[0.5]
Matrix Compiler2: 7.42 KB object code size  1.2/1.2/[0.5]

