Circuit: *** SPICE deck for cell XOR_sim{lay} from library XOR

Direct Newton iteration failed to find .op point.  (Use ".option noopiter" to skip.)
Starting Gmin stepping
Gmin = 10
Gmin = 1.07374
Gmin = 0.115292
Gmin = 0.0123794
Gmin = 0.00132923
Gmin = 0.000142725
Gmin = 1.5325e-005
Gmin = 1.6455e-006
Gmin = 1.76685e-007
Gmin = 1.89714e-008
Gmin = 2.03704e-009
Gmin = 2.18725e-010
Gmin = 2.34854e-011
Gmin = 2.52173e-012
Gmin = 2.70769e-013
Gmin = 0
Gmin stepping succeeded in finding the operating point.


Date: Fri Jan 10 13:18:10 2025
Total elapsed time: 0.306 seconds.

tnom = 27
temp = 27
method = modified trap
totiter = 3035
traniter = 2659
tranpoints = 1078
accept = 1078
rejected = 0
matrix size = 60
fillins = 0
solver = Normal
Matrix Compiler1: 7.81 KB object code size  9.7/3.2/[0.8]
Matrix Compiler2: 7.42 KB object code size  0.7/0.7/[0.4]

