Circuit: *** SPICE deck for cell XOR_sim{lay} from library XOR

Direct Newton iteration for .op point succeeded.

Date: Thu Jan 02 23:55:56 2025
Total elapsed time: 0.147 seconds.

tnom = 27
temp = 27
method = modified trap
totiter = 2628
traniter = 2596
tranpoints = 1075
accept = 1074
rejected = 1
matrix size = 60
fillins = 1
solver = Normal
Matrix Compiler1: 7.88 KB object code size  4.7/1.5/[0.7]
Matrix Compiler2: 7.41 KB object code size  1.6/1.4/[0.5]

