Circuit: *** SPICE deck for cell XOR_sim{lay} from library XOR

Ignoring BSIM parameter XL
Ignoring BSIM parameter XW
Ignoring BSIM parameter XL
Ignoring BSIM parameter XW
Direct Newton iteration for .op point succeeded.

Date: Thu Jan 02 14:34:51 2025
Total elapsed time: 0.142 seconds.

tnom = 27
temp = 27
method = modified trap
totiter = 2624
traniter = 2611
tranpoints = 1154
accept = 1116
rejected = 38
matrix size = 12
fillins = 0
solver = Normal
Matrix Compiler1: 946 bytes object code size  0.8/0.2/[0.1]
Matrix Compiler2: 1.28 KB object code size  0.2/0.2/[0.1]

