Circuit: *** SPICE deck for cell XOR_sim{lay} from library XOR

Direct Newton iteration for .op point succeeded.

Date: Thu Jan 02 22:38:33 2025
Total elapsed time: 0.263 seconds.

tnom = 27
temp = 27
method = modified trap
totiter = 2586
traniter = 2559
tranpoints = 1074
accept = 1074
rejected = 0
matrix size = 60
fillins = 0
solver = Normal
Matrix Compiler1: 7.81 KB object code size  11.6/3.9/[1.1]
Matrix Compiler2: 7.42 KB object code size  3.2/3.0/[0.6]

