Circuit: *** SPICE deck for cell XOR_ICON_SIM{sch} from library XOR

Direct Newton iteration for .op point succeeded.

Date: Thu Jan 02 22:37:50 2025
Total elapsed time: 0.230 seconds.

tnom = 27
temp = 27
method = modified trap
totiter = 2612
traniter = 2595
tranpoints = 1077
accept = 1076
rejected = 1
matrix size = 60
fillins = 0
solver = Normal
Matrix Compiler1: 7.86 KB object code size  14.7/4.6/[1.4]
Matrix Compiler2: 7.40 KB object code size  4.1/4.8/[0.6]

