Circuit: *** SPICE deck for cell XOR_ICON_SIM{sch} from library XOR

Direct Newton iteration for .op point succeeded.

Date: Sat Jan 04 23:54:43 2025
Total elapsed time: 0.165 seconds.

tnom = 27
temp = 27
method = modified trap
totiter = 2457
traniter = 2441
tranpoints = 1088
accept = 1083
rejected = 5
matrix size = 60
fillins = 0
solver = Normal
Matrix Compiler1: 7.86 KB object code size  4.5/1.4/[0.4]
Matrix Compiler2: 7.40 KB object code size  1.2/1.2/[0.4]

