Circuit: *** SPICE deck for cell XOR_dynamic{sch} from library XOR_dynamic

Direct Newton iteration for .op point succeeded.

Date: Tue Jan 07 20:15:20 2025
Total elapsed time: 0.151 seconds.

tnom = 27
temp = 27
method = modified trap
totiter = 2613
traniter = 2599
tranpoints = 1084
accept = 1084
rejected = 0
matrix size = 32
fillins = 0
solver = Normal
Matrix Compiler1: 3.34 KB object code size  2.3/0.7/[0.3]
Matrix Compiler2: 3.88 KB object code size  0.7/0.7/[0.4]

